
**** 11/17/25 18:49:10 ******* PSpice Lite (March 2016) ******* ID# 10813 ****

 ** Profile: "SCHEMATIC1-RI"  [ C:\Users\iovaa\Desktop\P1_2025_431E_Iova_Dumitru_Alexandru_AAF__N8_OrCad\P1_2025_431E_Iova_Dumitru_Al


 ****     CIRCUIT DESCRIPTION


******************************************************************************




** Creating circuit file "RI.cir" 
** WARNING: THIS AUTOMATICALLY GENERATED FILE MAY BE OVERWRITTEN BY SUBSEQUENT SIMULATIONS

*Libraries: 
* Profile Libraries :
* Local Libraries :
.LIB "C:/Cadence/SPB_17.2/tools/capture/library/pspice/analog.olb" 
.LIB "C:/Cadence/SPB_17.2/tools/capture/library/pspice/breakout.olb" 
.LIB "C:/Cadence/SPB_17.2/tools/capture/library/pspice/source.olb" 
.LIB "C:/Cadence/SPB_17.2/tools/capture/library/pspice/sourcstm.olb" 
.LIB "C:/Cadence/SPB_17.2/tools/capture/library/pspice/special.olb" 
.LIB "../../../lib_modelepspice_anexa_1/modele_a1_lib/1n4148.olb" 
.LIB "../../../lib_modelepspice_anexa_1/modele_a1_lib/bc807-25.olb" 
.LIB "../../../lib_modelepspice_anexa_1/modele_a1_lib/bc817-25.olb" 
.LIB "../../../lib_modelepspice_anexa_1/modele_a1_lib/bc846b.olb" 
.LIB "../../../lib_modelepspice_anexa_1/modele_a1_lib/bc856b.olb" 
.LIB "../../../lib_modelepspice_anexa_1/modele_a1_lib/bzx84c2v7.olb" 
.LIB "../../../lib_modelepspice_anexa_1/modele_a1_lib/bzx84c5v1.olb" 
.LIB "../../../lib_modelepspice_anexa_1/modele_a1_lib/bzx84c5v6.olb" 
.LIB "../../../lib_modelepspice_anexa_1/modele_a1_lib/bzx84c6v2.olb" 
.LIB "../../../lib_modelepspice_anexa_1/modele_a1_lib/bzx84c6v8.olb" 
.LIB "../../../lib_modelepspice_anexa_1/modele_a1_lib/bzx84c10.olb" 
.LIB "../../../lib_modelepspice_anexa_1/modele_a1_lib/irfr120npbf.olb" 
.LIB "../../../lib_modelepspice_anexa_1/modele_a1_lib/mjd31cg.olb" 
.LIB "../../../lib_modelepspice_anexa_1/modele_a1_lib/mjd32cg.olb" 
.LIB "../../../lib_modelepspice_anexa_1/modele_a1_lib/mmbfj177lt1g.olb" 
.LIB "../../../lib_modelepspice_anexa_1/modele_a1_lib/mmbfj309lt1g.olb" 
* From [PSPICE NETLIST] section of C:\Users\iovaa\AppData\Roaming\SPB_16.6\cdssetup\OrCAD_PSpice\17.2.0\PSpice.ini file:
.lib "nomd.lib" 

*Analysis directives: 
.AC DEC 10 10 10MEG
.TEMP -10 0 27 50 70 120
.OPTIONS ADVCONV
.PROBE64 V(alias(*)) I(alias(*)) W(alias(*)) D(alias(*)) NOISE(alias(*)) 
.INC "..\SCHEMATIC1.net" 



**** INCLUDING SCHEMATIC1.net ****
* source PROIECT_CEF2_AAF
R_R14         N663861 N66336  150 TC=0,0 
Q_Q5         N67056 N67354 N67488 QBC846B 
Q_Q6         N67316 N67354 N67504 QBC846B 
Q_Q1         N66648 VIN N67056 QBC846B 
C_C1         N66648 N66814  470p  TC=0,0 
R_R8         N67038 VOUT  8.2k TC=0,0 
Q_Q3         N66648 N66616 N66482 QBC856B 
X_U2         N675241 N66858 1N4148 
R_R3         N66488 N66336  220 TC=0,0 
R_R15         N66858 N675521  150 TC=0,0 
Q_Q4         N66616 N66616 N66488 QBC856B 
R_R4         N66858 N67488  470 TC=0,0 
R_R2         N66482 N66336  220 TC=0,0 
R_R11         N670721 N669241  22 TC=0,0 
R_R6         N66858 N67504  330 TC=0,0 
V_V1         VIN 0  AC 480m
+SIN 0 480m 1k 0 0 0
X_U1         N67354 N675241 1N4148 
Q_Q7         N66814 N66648 N66606 QBC856B 
R_R1         0 VIN  220k TC=0,0 
R_R7         N66606 N66336  330 TC=0,0 
X_U3         N66814 N66990 1N4148 
R_R16         N664601 N663861  82 TC=0,0 
R_R9         0 N67038  910 TC=0,0 
R_R5         N67354 0  2.2k TC=0,0 
R_R17         N675521 N67935  82 TC=0,0 
C_C2         N66606 N66336  1u  TC=0,0 
X_U4         N66990 N67316 1N4148 
V_Vdd         N66336 0 8Vdc
R_R12         N672161 N670721  22 TC=0,0 
Q_Q9         N66858 N67316 VOUT QBC856B 
V_Vss         0 N66858 8Vdc
Q_Q8         N66336 N66814 VOUT QBC846B 
Q_Q2         N66616 N67038 N67056 QBC846B 
R_R10         N669241 VOUT  22 TC=0,0 
X_D1         N664601 0 LED PARAMS: IS=1.7603e-027 RS=3  BV=5 IBV=5e-6         
X_D2         0 N67935 LED PARAMS: IS=1.7603e-027 RS=3  BV=5 IBV=5e-6         
R_R13         0 N672161  10 TC=0,0 

**** RESUMING RI.cir ****
.END

ERROR(ORPSIM-15113): Model QBC846B used by Q_Q5 is undefined

ERROR(ORPSIM-15113): Model QBC846B used by Q_Q6 is undefined

ERROR(ORPSIM-15113): Model QBC846B used by Q_Q1 is undefined

ERROR(ORPSIM-15113): Model QBC856B used by Q_Q3 is undefined

ERROR(ORPSIM-15113): Model QBC856B used by Q_Q4 is undefined

ERROR(ORPSIM-15113): Model QBC856B used by Q_Q7 is undefined

ERROR(ORPSIM-15113): Model QBC856B used by Q_Q9 is undefined

ERROR(ORPSIM-15113): Model QBC846B used by Q_Q8 is undefined

ERROR(ORPSIM-15113): Model QBC846B used by Q_Q2 is undefined

ERROR(ORPSIM-15108): Subcircuit 1N4148 used by X_U2 is undefined

ERROR(ORPSIM-15108): Subcircuit 1N4148 used by X_U1 is undefined

ERROR(ORPSIM-15108): Subcircuit 1N4148 used by X_U3 is undefined

ERROR(ORPSIM-15108): Subcircuit 1N4148 used by X_U4 is undefined
